<?xml version="1.0" encoding="UTF-8"?>

<!-- generated on 2025-02-25 03:33:48 by Eclipse SUMO netedit Version 1.22.0
-->

<routes xmlns:xsi="http://www.w3.org/2001/XMLSchema-instance" xsi:noNamespaceSchemaLocation="http://sumo.dlr.de/xsd/routes_file.xsd">
    <!-- VTypes -->
    <vType id="bus" vClass="bus"/>
    <vType id="car"/>
    <vType id="pedestrian" vClass="pedestrian"/>
    <vType id="t_0"/>
    <!-- Routes -->
    <route id="r_0" edges="658935311 183876161#0 183876161#1 658942197 658942198 396100382#0 396100382#2 172795273 172795274#2"/>
    <!-- Vehicles, persons and containers (sorted by depart) -->
    <flow id="f_0" type="car" begin="0.00" departLane="random" from="658935311" to="172795274#2" end="3600.00" vehsPerHour="2000"/>
    <flow id="f_1" type="car" begin="0.00" departLane="random" from="294838752#0" to="658935310" end="3600.00" vehsPerHour="2000"/>
    <flow id="f_2" type="car" begin="0.00" departLane="random" from="294838752#0" to="172795274#2" end="3600.00" vehsPerHour="100"/>
    <flow id="f_3" type="car" begin="0.00" departLane="random" from="658935311" to="658935310" via="183876161#1 658942198 396100382#0 396100382#2 172795273 163492328 160092181#0 160092181#1 160092181#2" end="3600.00" vehsPerHour="100"/>
    <flow id="f_4" type="car" begin="0.00" departLane="random" from="294838752#0" to="160093171" end="3600.00" vehsPerHour="100"/>
    <flow id="f_5" type="car" begin="0.00" from="160093174#0" to="172795274#2" via="160093174#1 160093174#2 172795273" end="3600.00" vehsPerHour="100"/>
    <flow id="bus_f_0" type="bus" begin="0.00" route="r_0" end="3600.00" vehsPerHour="50">
        <stop busStop="bs_2" duration="60.00"/>
    </flow>
</routes>
