<?xml version="1.0" encoding="UTF-8"?>

<!-- generated on 2025-02-25 02:04:35 by Eclipse SUMO netedit Version 1.22.0
<neteditConfiguration xmlns:xsi="http://www.w3.org/2001/XMLSchema-instance" xsi:noNamespaceSchemaLocation="http://sumo.dlr.de/xsd/neteditConfiguration.xsd">

    <input>
        <sumocfg-file value="D:\Sumo\tools\2025-02-24-23-36-12\osm.sumocfg"/>
        <additional-files value="D:\Sumo\tools\2025-02-24-23-36-12\osm.poly.xml.gz"/>
        <route-files value="D:\Sumo\tools\2025-02-24-23-36-12\osm.passenger.trips.xml"/>
        <sumo-net-file value="D:\Sumo\tools\2025-02-24-23-36-12\work_program.net.xml"/>
    </input>

    <output>
        <output-file value="D:\Sumo\tools\2025-02-24-23-36-12\work_program.net.xml"/>
        <output.street-names value="true"/>
    </output>

    <processing>
        <geometry.min-radius.fix.railways value="false"/>
        <geometry.max-grade.fix value="false"/>
        <offset.disable-normalization value="true"/>
        <lefthand value="0"/>
    </processing>

    <junctions>
        <no-internal-links value="false"/>
        <no-turnarounds value="true"/>
        <junctions.corner-detail value="5"/>
        <junctions.limit-turn-speed value="5.50"/>
        <rectangular-lane-cut value="0"/>
    </junctions>

    <pedestrian>
        <walkingareas value="1"/>
    </pedestrian>

</neteditConfiguration>
-->

<net version="1.20" junctionCornerDetail="5" walkingareas="true" limitTurnSpeed="5.50" xmlns:xsi="http://www.w3.org/2001/XMLSchema-instance" xsi:noNamespaceSchemaLocation="http://sumo.dlr.de/xsd/net_file.xsd">

    <location netOffset="-284999.81,-5518448.07" convBoundary="22.72,637.57,326.18,1479.09" origBoundary="24.013212,49.779982,24.017198,49.793359" projParameter="+proj=utm +zone=35 +ellps=WGS84 +datum=WGS84 +units=m +no_defs"/>

    <type id="highway.cycleway" priority="1" numLanes="1" speed="5.56" allow="bicycle" oneway="0" width="2.00"/>
    <type id="highway.footway" priority="1" numLanes="1" speed="2.78" allow="pedestrian" oneway="1" width="2.00"/>
    <type id="highway.path" priority="1" numLanes="1" speed="5.56" allow="pedestrian bicycle" oneway="0" width="2.00"/>
    <type id="highway.primary" priority="12" numLanes="2" speed="27.78" disallow="tram rail_urban rail rail_electric rail_fast ship container cable_car subway aircraft wheelchair scooter drone" oneway="0"/>
    <type id="highway.primary_link" priority="7" numLanes="1" speed="22.22" disallow="tram rail_urban rail rail_electric rail_fast ship container cable_car subway aircraft wheelchair scooter drone" oneway="0"/>
    <type id="highway.residential" priority="3" numLanes="1" speed="13.89" disallow="tram rail_urban rail rail_electric rail_fast ship container cable_car subway aircraft wheelchair scooter drone" oneway="0"/>
    <type id="highway.service" priority="1" numLanes="1" speed="5.56" allow="pedestrian delivery bicycle" oneway="0"/>
    <type id="highway.track" priority="1" numLanes="1" speed="5.56" allow="pedestrian motorcycle moped bicycle" oneway="0"/>

    <edge id=":1561903621_0" function="internal">
        <lane id=":1561903621_0_0" index="0" allow="pedestrian delivery bicycle" speed="3.65" length="4.67" shape="262.41,826.46 261.82,827.77 261.09,828.30 260.24,828.03 259.25,826.97"/>
    </edge>
    <edge id=":1561903621_1" function="internal">
        <lane id=":1561903621_1_0" index="0" allow="pedestrian delivery bicycle" speed="5.56" length="4.11" shape="258.31,830.86 258.86,829.97 259.19,829.02 259.33,828.02 259.25,826.97"/>
    </edge>
    <edge id=":1561903621_w0" function="walkingarea">
        <lane id=":1561903621_w0_0" index="0" allow="pedestrian" speed="2.78" length="4.41" width="6.40" shape="263.99,826.20 257.67,827.23 257.71,828.18 257.63,828.64 257.49,829.08 257.29,829.51 257.03,829.92 259.60,831.81 261.04,830.22 262.08,829.08 263.06,827.92 263.76,826.91"/>
    </edge>
    <edge id=":1561903627_0" function="internal">
        <lane id=":1561903627_0_0" index="0" allow="pedestrian bus delivery bicycle" speed="3.91" length="2.52" shape="253.26,850.88 253.91,850.66 254.35,850.29 254.56,849.77 254.57,849.08"/>
    </edge>
    <edge id=":1626785318_0" function="internal">
        <lane id=":1626785318_0_0" index="0" allow="pedestrian delivery bicycle" speed="5.02" length="5.02" shape="261.72,881.75 261.30,880.44 260.57,879.58 259.51,879.18 258.13,879.24"/>
    </edge>
    <edge id=":1626785318_1" function="internal">
        <lane id=":1626785318_1_0" index="0" allow="pedestrian delivery bicycle" speed="3.65" length="4.67" shape="261.72,881.75 262.31,880.44 263.04,879.91 263.89,880.17 264.88,881.22"/>
    </edge>
    <edge id=":1626785318_2" function="internal">
        <lane id=":1626785318_2_0" index="0" allow="pedestrian delivery bicycle" speed="5.10" length="5.07" shape="267.37,877.52 266.08,877.97 265.24,878.73 264.84,879.82 264.88,881.22"/>
    </edge>
    <edge id=":1626785318_3" function="internal">
        <lane id=":1626785318_3_0" index="0" disallow="tram rail_urban rail rail_electric rail_fast ship container cable_car subway aircraft wheelchair scooter drone" speed="13.89" length="9.40" shape="267.37,877.52 258.13,879.24"/>
    </edge>
    <edge id=":1626785318_w0" function="walkingarea">
        <lane id=":1626785318_w0_0" index="0" allow="pedestrian" speed="2.78" length="5.92" width="6.40" shape="260.15,882.02 266.46,880.96 266.47,880.05 266.63,879.70 266.88,879.43 267.22,879.23 267.67,879.10 267.08,875.95 257.84,877.66 258.42,880.81 259.27,880.82 259.59,880.98 259.84,881.23 260.03,881.57"/>
    </edge>
    <edge id=":1626785336_0" function="internal">
        <lane id=":1626785336_0_0" index="0" allow="pedestrian delivery bicycle" speed="3.65" length="4.67" shape="277.63,965.16 277.02,966.47 276.29,966.99 275.44,966.71 274.47,965.64"/>
    </edge>
    <edge id=":1626785336_w0" function="walkingarea">
        <lane id=":1626785336_w0_0" index="0" allow="pedestrian" speed="2.78" length="3.33" width="6.40" shape="275.53,968.52 277.50,968.19 279.21,964.93 272.88,965.88"/>
    </edge>
    <edge id=":1631324253_0" function="internal">
        <lane id=":1631324253_0_0" index="0" allow="pedestrian delivery bicycle" speed="5.01" length="5.04" shape="201.45,1125.54 200.12,1125.94 199.25,1126.67 198.85,1127.72 198.90,1129.11"/>
    </edge>
    <edge id=":1631324253_1" function="internal">
        <lane id=":1631324253_1_0" index="0" allow="pedestrian delivery bicycle" speed="5.14" length="5.12" shape="197.22,1119.85 197.66,1121.14 198.43,1121.99 199.54,1122.40 200.97,1122.38"/>
    </edge>
    <edge id=":1631324253_2" function="internal">
        <lane id=":1631324253_2_0" index="0" disallow="tram rail_urban rail rail_electric rail_fast ship container cable_car subway aircraft wheelchair scooter drone" speed="13.89" length="9.41" shape="197.22,1119.85 198.90,1129.11"/>
        <lane id=":1631324253_2_1" index="1" disallow="tram rail_urban rail rail_electric rail_fast ship container cable_car subway aircraft wheelchair scooter drone" speed="13.89" length="9.41" shape="194.07,1120.42 195.75,1129.68"/>
        <lane id=":1631324253_2_2" index="2" disallow="tram rail_urban rail rail_electric rail_fast ship container cable_car subway aircraft wheelchair scooter drone" speed="13.89" length="9.41" shape="190.92,1120.98 192.60,1130.26"/>
    </edge>
    <edge id=":1631324253_w0" function="walkingarea">
        <lane id=":1631324253_w0_0" index="0" allow="pedestrian" speed="2.78" length="5.94" width="6.40" shape="191.03,1130.54 200.47,1128.82 200.49,1127.98 200.64,1127.66 200.89,1127.41 201.24,1127.23 201.69,1127.12 200.74,1120.80 199.78,1120.77 199.41,1120.61 199.13,1120.36 198.93,1120.01 198.80,1119.57 189.35,1121.27"/>
    </edge>
    <edge id=":1631324264_0" function="internal">
        <lane id=":1631324264_0_0" index="0" allow="pedestrian delivery bicycle" speed="5.04" length="5.01" shape="241.29,1344.47 239.99,1344.91 239.14,1345.66 238.74,1346.71 238.80,1348.08"/>
    </edge>
    <edge id=":1631324264_1" function="internal">
        <lane id=":1631324264_1_0" index="0" allow="pedestrian delivery bicycle" speed="5.04" length="5.00" shape="237.11,1338.83 237.54,1340.13 238.28,1340.98 239.34,1341.38 240.71,1341.32"/>
    </edge>
    <edge id=":1631324264_2" function="internal">
        <lane id=":1631324264_2_0" index="0" disallow="tram rail_urban rail rail_electric rail_fast ship container cable_car subway aircraft wheelchair scooter drone" speed="13.89" length="9.41" shape="237.11,1338.83 238.80,1348.08"/>
        <lane id=":1631324264_2_1" index="1" disallow="tram rail_urban rail rail_electric rail_fast ship container cable_car subway aircraft wheelchair scooter drone" speed="13.89" length="9.41" shape="233.96,1339.41 235.65,1348.66"/>
        <lane id=":1631324264_2_2" index="2" disallow="tram rail_urban rail rail_electric rail_fast ship container cable_car subway aircraft wheelchair scooter drone" speed="13.89" length="9.41" shape="230.81,1339.98 232.50,1349.24"/>
    </edge>
    <edge id=":1631324264_w0" function="walkingarea">
        <lane id=":1631324264_w0_0" index="0" allow="pedestrian" speed="2.78" length="5.90" width="6.40" shape="230.93,1349.53 240.37,1347.79 240.39,1346.94 240.54,1346.62 240.79,1346.36 241.14,1346.17 241.58,1346.04 240.42,1339.75 239.57,1339.74 239.25,1339.59 238.99,1339.34 238.80,1338.99 238.68,1338.55 229.23,1340.26"/>
    </edge>
    <edge id=":1631324280_0" function="internal">
        <lane id=":1631324280_0_0" index="0" disallow="tram rail_urban rail rail_electric rail_fast ship container cable_car subway aircraft wheelchair scooter drone" speed="3.65" length="4.67" shape="114.54,1458.27 114.02,1459.61 113.32,1460.17 112.45,1459.95 111.42,1458.95"/>
    </edge>
    <edge id=":1689126582_0" function="internal">
        <lane id=":1689126582_0_0" index="0" allow="pedestrian delivery bicycle" speed="5.56" length="11.53" shape="173.40,740.34 172.76,743.48 172.46,746.02 172.47,748.57 172.76,751.77"/>
    </edge>
    <edge id=":1689126582_1" function="internal">
        <lane id=":1689126582_1_0" index="0" allow="pedestrian delivery bicycle" speed="5.56" length="12.42" shape="173.40,740.34 172.24,743.38 170.49,745.57 168.24,747.46 165.59,749.62"/>
    </edge>
    <edge id=":1689126582_2" function="internal">
        <lane id=":1689126582_2_0" index="0" allow="pedestrian delivery bicycle" speed="3.65" length="4.67" shape="173.40,740.34 172.35,741.33 171.49,741.55 170.79,740.98 170.27,739.64"/>
    </edge>
    <edge id=":1689126582_3" function="internal">
        <lane id=":1689126582_3_0" index="0" allow="pedestrian delivery bicycle" speed="5.56" length="10.53" shape="163.47,747.22 165.96,745.33 167.87,744.02 169.28,742.41 170.27,739.64"/>
    </edge>
    <edge id=":1689126582_4" function="internal">
        <lane id=":1689126582_4_0" index="0" allow="pedestrian delivery bicycle" speed="5.56" length="14.79" shape="163.47,747.22 167.05,744.86 169.80,744.82 171.70,747.13 172.76,751.77"/>
    </edge>
    <edge id=":1689126582_5" function="internal">
        <lane id=":1689126582_5_0" index="0" allow="pedestrian delivery bicycle" speed="3.65" length="4.67" shape="163.47,747.22 164.90,747.03 165.73,747.36 165.96,748.23 165.59,749.62"/>
    </edge>
    <edge id=":1689126582_6" function="internal">
        <lane id=":1689126582_6_0" index="0" allow="pedestrian delivery bicycle" speed="4.71" length="6.20" shape="169.51,751.47 169.06,749.54 168.26,748.59 167.10,748.62 165.59,749.62"/>
    </edge>
    <edge id=":1689126582_7" function="internal">
        <lane id=":1689126582_7_0" index="0" allow="pedestrian delivery bicycle" speed="5.56" length="11.94" shape="169.51,751.47 169.24,748.21 169.27,745.52 169.62,742.84 170.27,739.64"/>
    </edge>
    <edge id=":1689126582_8" function="internal">
        <lane id=":1689126582_8_0" index="0" allow="pedestrian delivery bicycle" speed="3.68" length="4.77" shape="169.51,751.47 170.43,750.33 171.28,750.00 172.06,750.48 172.76,751.77"/>
    </edge>
    <edge id=":1689126582_w0" function="walkingarea">
        <lane id=":1689126582_w0_0" index="0" allow="pedestrian" speed="2.78" length="8.81" width="6.40" shape="174.96,740.69 168.71,739.28 167.40,742.35 166.48,743.20 165.36,743.92 164.01,744.78 162.41,746.02 166.65,750.82 167.26,750.46 167.49,750.47 167.67,750.62 167.80,750.91 167.88,751.32 174.39,751.92 174.13,749.53 173.99,747.74 173.98,746.27 174.12,744.80 174.44,743.04"/>
    </edge>
    <edge id=":1689126620_0" function="internal">
        <lane id=":1689126620_0_0" index="0" allow="pedestrian delivery bicycle" speed="5.56" length="8.30" shape="157.16,763.96 154.90,762.95 153.30,762.20 151.67,761.84 149.29,762.05"/>
    </edge>
    <edge id=":1689126620_1" function="internal">
        <lane id=":1689126620_1_0" index="0" allow="pedestrian delivery bicycle" speed="5.56" length="13.08" shape="157.16,763.96 153.74,762.10 152.31,759.88 152.86,757.29 155.41,754.35"/>
    </edge>
    <edge id=":1689126620_2" function="internal">
        <lane id=":1689126620_2_0" index="0" allow="pedestrian delivery bicycle" speed="3.65" length="4.67" shape="157.16,763.96 156.33,762.78 156.24,761.89 156.89,761.29 158.30,760.96"/>
    </edge>
    <edge id=":1689126620_3" function="internal">
        <lane id=":1689126620_3_0" index="0" allow="pedestrian delivery bicycle" speed="4.69" length="5.74" shape="157.53,756.74 156.41,758.04 156.16,759.17 156.79,760.15 158.30,760.96"/>
    </edge>
    <edge id=":1689126620_4" function="internal">
        <lane id=":1689126620_4_0" index="0" allow="pedestrian delivery bicycle" speed="5.56" length="10.04" shape="157.53,756.74 155.37,758.82 153.84,760.29 152.09,761.31 149.29,762.05"/>
    </edge>
    <edge id=":1689126620_5" function="internal">
        <lane id=":1689126620_5_0" index="0" allow="pedestrian delivery bicycle" speed="3.65" length="4.67" shape="157.53,756.74 156.10,756.94 155.27,756.61 155.04,755.74 155.41,754.35"/>
    </edge>
    <edge id=":1689126620_6" function="internal">
        <lane id=":1689126620_6_0" index="0" allow="pedestrian delivery bicycle" speed="5.56" length="8.29" shape="148.73,758.90 151.02,758.26 152.42,757.36 153.65,756.09 155.41,754.35"/>
    </edge>
    <edge id=":1689126620_7" function="internal">
        <lane id=":1689126620_7_0" index="0" allow="pedestrian delivery bicycle" speed="5.56" length="10.02" shape="148.73,758.90 151.61,758.61 153.60,758.96 155.55,759.79 158.30,760.96"/>
    </edge>
    <edge id=":1689126620_8" function="internal">
        <lane id=":1689126620_8_0" index="0" allow="pedestrian delivery bicycle" speed="3.65" length="4.67" shape="148.73,758.90 150.05,759.47 150.58,760.19 150.33,761.05 149.29,762.05"/>
    </edge>
    <edge id=":1689126620_w0" function="walkingarea">
        <lane id=":1689126620_w0_0" index="0" allow="pedestrian" speed="2.78" length="7.45" width="6.40" shape="156.60,765.45 158.87,759.47 158.21,759.06 158.09,758.82 158.12,758.55 158.28,758.26 158.59,757.94 154.35,753.15 152.41,755.15 151.72,755.89 150.96,756.49 149.93,756.96 148.45,757.32 149.57,763.62 152.23,763.53 153.15,763.82 154.06,764.26 155.15,764.83"/>
    </edge>
    <edge id=":1689126627_0" function="internal">
        <lane id=":1689126627_0_0" index="0" allow="pedestrian delivery bicycle" speed="5.25" length="5.21" shape="136.43,764.56 135.03,765.06 134.10,765.85 133.62,766.91 133.61,768.25"/>
    </edge>
    <edge id=":1689126627_1" function="internal">
        <lane id=":1689126627_1_0" index="0" allow="pedestrian delivery bicycle" speed="3.65" length="4.67" shape="136.43,764.56 135.09,764.04 134.52,763.35 134.74,762.48 135.73,761.44"/>
    </edge>
    <edge id=":1689126627_2" function="internal">
        <lane id=":1689126627_2_0" index="0" allow="pedestrian delivery bicycle" speed="5.00" length="5.05" shape="132.08,759.01 132.52,760.33 133.28,761.18 134.35,761.54 135.73,761.44"/>
    </edge>
    <edge id=":1689126627_3" function="internal">
        <lane id=":1689126627_3_0" index="0" disallow="tram rail_urban rail rail_electric rail_fast ship container cable_car subway aircraft wheelchair scooter drone" speed="13.89" length="9.27" shape="132.08,759.01 133.61,768.25"/>
        <lane id=":1689126627_3_1" index="1" disallow="tram rail_urban rail rail_electric rail_fast ship container cable_car subway aircraft wheelchair scooter drone" speed="13.89" length="9.27" shape="128.93,759.58 130.45,768.72"/>
        <lane id=":1689126627_3_2" index="2" disallow="tram rail_urban rail rail_electric rail_fast ship container cable_car subway aircraft wheelchair scooter drone" speed="13.89" length="9.27" shape="125.78,760.14 127.28,769.20"/>
    </edge>
    <edge id=":1689126627_w0" function="walkingarea">
        <lane id=":1689126627_w0_0" index="0" allow="pedestrian" speed="2.78" length="5.96" width="6.40" shape="125.70,769.43 135.20,768.01 135.27,767.14 135.48,766.80 135.80,766.51 136.23,766.29 136.78,766.12 135.39,759.88 134.54,759.89 134.22,759.75 133.97,759.51 133.78,759.17 133.66,758.73 124.21,760.43"/>
    </edge>
    <edge id=":1689126658_0" function="internal">
        <lane id=":1689126658_0_0" index="0" allow="pedestrian delivery bicycle" speed="5.56" length="10.79" shape="176.80,772.67 174.85,770.41 172.89,769.37 170.55,768.79 167.52,767.88"/>
    </edge>
    <edge id=":1689126658_1" function="internal">
        <lane id=":1689126658_1_0" index="0" allow="pedestrian delivery bicycle" speed="5.56" length="12.15" shape="176.80,772.67 175.03,769.88 173.71,767.45 172.62,764.90 171.59,761.76"/>
    </edge>
    <edge id=":1689126658_2" function="internal">
        <lane id=":1689126658_2_0" index="0" allow="pedestrian delivery bicycle" speed="3.65" length="4.67" shape="176.80,772.67 176.81,771.23 177.27,770.46 178.15,770.36 179.48,770.92"/>
    </edge>
    <edge id=":1689126658_3" function="internal">
        <lane id=":1689126658_3_0" index="0" allow="pedestrian delivery bicycle" speed="5.56" length="11.81" shape="174.49,760.28 175.49,763.38 176.49,765.83 177.75,768.17 179.48,770.92"/>
    </edge>
    <edge id=":1689126658_4" function="internal">
        <lane id=":1689126658_4_0" index="0" allow="pedestrian delivery bicycle" speed="5.56" length="15.10" shape="174.49,760.28 175.34,765.09 174.46,767.95 171.85,768.89 167.52,767.88"/>
    </edge>
    <edge id=":1689126658_5" function="internal">
        <lane id=":1689126658_5_0" index="0" allow="pedestrian delivery bicycle" speed="3.67" length="4.75" shape="174.49,760.28 174.32,761.74 173.78,762.47 172.87,762.48 171.59,761.76"/>
    </edge>
    <edge id=":1689126658_6" function="internal">
        <lane id=":1689126658_6_0" index="0" allow="pedestrian delivery bicycle" speed="4.70" length="6.29" shape="168.65,764.89 170.47,765.31 171.57,764.93 171.94,763.75 171.59,761.76"/>
    </edge>
    <edge id=":1689126658_7" function="internal">
        <lane id=":1689126658_7_0" index="0" allow="pedestrian delivery bicycle" speed="5.56" length="12.68" shape="168.65,764.89 171.93,765.99 174.79,767.00 177.29,768.46 179.48,770.92"/>
    </edge>
    <edge id=":1689126658_8" function="internal">
        <lane id=":1689126658_8_0" index="0" allow="pedestrian delivery bicycle" speed="3.65" length="4.67" shape="168.65,764.89 169.49,766.06 169.58,766.95 168.92,767.56 167.52,767.88"/>
    </edge>
    <edge id=":1689126658_w0" function="walkingarea">
        <lane id=":1689126658_w0_0" index="0" allow="pedestrian" speed="2.78" length="8.94" width="6.40" shape="175.46,773.55 180.82,770.05 179.47,767.97 178.51,766.40 177.81,765.06 177.24,763.66 176.65,761.91 175.94,759.54 170.14,762.50 170.22,763.22 170.12,763.42 169.92,763.52 169.62,763.51 169.22,763.39 166.95,769.38 168.94,769.99 170.55,770.32 171.90,770.60 173.09,771.08 174.24,771.98"/>
    </edge>
    <edge id=":1689126809_0" function="internal">
        <lane id=":1689126809_0_0" index="0" allow="pedestrian delivery bicycle" speed="5.56" length="9.40" shape="291.02,1056.15 289.42,1046.89"/>
    </edge>
    <edge id=":1689126809_1" function="internal">
        <lane id=":1689126809_1_0" index="0" allow="pedestrian delivery bicycle" speed="5.56" length="10.16" shape="291.02,1056.15 290.94,1053.38 291.77,1051.24 293.51,1049.73 296.16,1048.86"/>
    </edge>
    <edge id=":1689126809_2" function="internal">
        <lane id=":1689126809_2_0" index="0" allow="pedestrian delivery bicycle" speed="3.65" length="4.67" shape="291.02,1056.15 291.60,1054.83 292.32,1054.30 293.18,1054.56 294.17,1055.61"/>
    </edge>
    <edge id=":1689126809_3" function="internal">
        <lane id=":1689126809_3_0" index="0" allow="pedestrian delivery bicycle" speed="5.06" length="5.03" shape="296.73,1052.01 295.41,1052.44 294.55,1053.19 294.13,1054.24 294.17,1055.61"/>
    </edge>
    <edge id=":1689126809_4" function="internal">
        <lane id=":1689126809_4_0" index="0" allow="pedestrian delivery bicycle" speed="5.56" length="10.19" shape="296.73,1052.01 293.94,1052.11 291.79,1051.29 290.28,1049.55 289.42,1046.89"/>
    </edge>
    <edge id=":1689126809_5" function="internal">
        <lane id=":1689126809_5_0" index="0" allow="pedestrian delivery bicycle" speed="3.65" length="4.67" shape="296.73,1052.01 295.41,1051.43 294.87,1050.72 295.12,1049.86 296.16,1048.86"/>
    </edge>
    <edge id=":1689126809_6" function="internal">
        <lane id=":1689126809_6_0" index="0" allow="pedestrian delivery bicycle" speed="5.03" length="5.01" shape="292.57,1046.34 292.99,1047.65 293.73,1048.51 294.79,1048.91 296.16,1048.86"/>
    </edge>
    <edge id=":1689126809_7" function="internal">
        <lane id=":1689126809_7_0" index="0" allow="pedestrian delivery bicycle" speed="5.56" length="9.40" shape="292.57,1046.34 294.17,1055.61"/>
    </edge>
    <edge id=":1689126809_8" function="internal">
        <lane id=":1689126809_8_0" index="0" allow="pedestrian delivery bicycle" speed="3.65" length="4.67" shape="292.57,1046.34 291.99,1047.66 291.27,1048.19 290.41,1047.94 289.42,1046.89"/>
    </edge>
    <edge id=":1689126809_w0" function="walkingarea">
        <lane id=":1689126809_w0_0" index="0" allow="pedestrian" speed="2.78" length="6.87" width="6.40" shape="289.44,1056.42 295.75,1055.34 295.77,1054.48 295.94,1054.16 296.20,1053.90 296.56,1053.71 297.01,1053.58 295.88,1047.28 295.03,1047.27 294.71,1047.11 294.45,1046.86 294.27,1046.52 294.15,1046.07 287.84,1047.16"/>
    </edge>
    <edge id=":1721677990_0" function="internal">
        <lane id=":1721677990_0_0" index="0" allow="pedestrian delivery bicycle" speed="4.84" length="8.04" shape="255.32,802.96 254.63,800.33 253.75,799.37 252.69,800.11 251.44,802.53"/>
    </edge>
    <edge id=":1721677990_1" function="internal">
        <lane id=":1721677990_1_0" index="0" allow="pedestrian delivery bicycle" speed="5.56" length="16.73" shape="255.32,802.96 254.56,796.90 254.60,792.21 255.42,788.90 257.05,786.97"/>
    </edge>
    <edge id=":1721677990_2" function="internal">
        <lane id=":1721677990_2_0" index="0" allow="pedestrian delivery bicycle" speed="3.65" length="4.67" shape="255.32,802.96 255.91,801.65 256.63,801.12 257.48,801.38 258.47,802.42"/>
    </edge>
    <edge id=":1721677990_3" function="internal">
        <lane id=":1721677990_3_0" index="0" allow="pedestrian delivery bicycle" speed="5.56" length="13.05" shape="258.73,789.69 257.89,790.99 257.56,793.55 257.76,797.36 258.47,802.42"/>
    </edge>
    <edge id=":1721677990_4" function="internal">
        <lane id=":1721677990_4_0" index="0" allow="pedestrian delivery bicycle" speed="5.56" length="15.02" shape="258.73,789.69 256.06,792.15 254.20,795.36 252.78,798.94 251.44,802.53"/>
    </edge>
    <edge id=":1721677990_5" function="internal">
        <lane id=":1721677990_5_0" index="0" allow="pedestrian delivery bicycle" speed="3.65" length="4.67" shape="258.73,789.69 257.28,789.64 256.52,789.17 256.44,788.28 257.05,786.97"/>
    </edge>
    <edge id=":1721677990_6" function="internal">
        <lane id=":1721677990_6_0" index="0" allow="pedestrian bus delivery bicycle" speed="5.56" length="16.94" shape="248.48,801.31 250.02,797.49 251.88,793.39 254.18,789.67 257.05,786.97"/>
    </edge>
    <edge id=":1721677990_7" function="internal">
        <lane id=":1721677990_7_0" index="0" allow="pedestrian delivery bicycle" speed="5.56" length="20.70" shape="248.48,801.31 251.70,795.08 254.44,793.18 256.70,795.63 258.47,802.42"/>
    </edge>
    <edge id=":1721677990_8" function="internal">
        <lane id=":1721677990_8_0" index="0" allow="pedestrian delivery bicycle" speed="3.65" length="4.67" shape="248.48,801.31 249.68,800.51 250.57,800.44 251.16,801.12 251.44,802.53"/>
    </edge>
    <edge id=":1721677990_w0" function="walkingarea">
        <lane id=":1721677990_w0_0" index="0" allow="pedestrian" speed="2.78" length="10.61" width="6.40" shape="253.74,803.23 260.05,802.15 259.55,798.98 259.21,796.34 259.05,794.22 259.05,792.64 259.22,791.58 259.56,791.05 256.21,785.61 253.14,787.77 251.22,789.77 250.04,791.83 249.21,794.19 248.33,797.07 247.00,800.70 252.92,803.14"/>
    </edge>
    <edge id=":1721677999_0" function="internal">
        <lane id=":1721677999_0_0" index="0" allow="pedestrian bus delivery bicycle" speed="5.56" length="9.64" shape="253.34,840.32 252.70,837.55 251.91,835.73 251.13,833.92 250.53,831.14"/>
    </edge>
    <edge id=":1721677999_1" function="internal">
        <lane id=":1721677999_1_0" index="0" allow="pedestrian bus delivery bicycle" speed="5.56" length="10.06" shape="253.34,840.32 253.33,837.52 254.18,835.71 255.69,834.06 257.65,831.76"/>
    </edge>
    <edge id=":1721677999_2" function="internal">
        <lane id=":1721677999_2_0" index="0" allow="pedestrian delivery bicycle" speed="4.68" length="6.75" shape="253.70,830.74 254.21,832.85 255.04,833.72 256.18,833.36 257.65,831.76"/>
    </edge>
    <edge id=":1721677999_3" function="internal">
        <lane id=":1721677999_3_0" index="0" allow="pedestrian delivery bicycle" speed="3.65" length="4.67" shape="253.70,830.74 253.06,832.03 252.31,832.53 251.47,832.23 250.53,831.14"/>
    </edge>
    <edge id=":1721677999_w0" function="walkingarea">
        <lane id=":1721677999_w0_0" index="0" allow="pedestrian" speed="2.78" length="7.20" width="6.40" shape="251.75,840.54 254.92,840.10 255.15,837.08 255.78,836.11 256.66,835.21 257.74,834.14 258.94,832.71 256.37,830.81 255.85,831.32 255.65,831.35 255.49,831.23 255.37,830.96 255.29,830.53 248.94,831.34 249.31,833.35 249.79,834.79 250.32,835.95 250.86,837.10 251.35,838.54"/>
    </edge>
    <edge id=":1823154158_0" function="internal">
        <lane id=":1823154158_0_0" index="0" allow="pedestrian delivery bicycle" speed="3.65" length="4.67" shape="292.70,964.11 294.04,964.63 294.60,965.33 294.38,966.19 293.38,967.23"/>
    </edge>
    <edge id=":1823154160_0" function="internal">
        <lane id=":1823154160_0_0" index="0" allow="pedestrian delivery bicycle" speed="3.65" length="4.67" shape="280.44,970.08 279.10,969.56 278.54,968.86 278.76,968.00 279.76,966.96"/>
    </edge>
    <edge id=":1823154172_0" function="internal">
        <lane id=":1823154172_0_0" index="0" allow="pedestrian delivery bicycle" speed="3.65" length="4.67" shape="257.61,1049.47 256.29,1048.88 255.75,1048.17 256.01,1047.31 257.05,1046.31"/>
    </edge>
    <edge id=":1929356261_w0" function="walkingarea">
        <lane id=":1929356261_w0_0" index="0" allow="pedestrian" speed="2.78" length="0.10" width="3.20" shape="251.76,1409.66 242.32,1411.40"/>
    </edge>
    <edge id=":2267698951_0" function="internal">
        <lane id=":2267698951_0_0" index="0" allow="pedestrian delivery bicycle" speed="5.22" length="4.83" shape="182.85,640.11 181.60,639.75 180.49,639.83 179.51,640.37 178.67,641.36"/>
    </edge>
    <edge id=":2267698951_1" function="internal">
        <lane id=":2267698951_1_0" index="0" allow="pedestrian delivery bicycle" speed="3.65" length="4.67" shape="182.85,640.11 182.08,638.89 182.04,637.99 182.73,637.43 184.15,637.19"/>
    </edge>
    <edge id=":2267698951_w0" function="walkingarea">
        <lane id=":2267698951_w0_0" index="0" allow="pedestrian" speed="2.78" length="4.82" width="6.40" shape="182.20,641.57 184.81,635.72 182.44,635.57 181.21,636.15 179.95,637.16 178.65,638.61 177.32,640.50 180.02,642.22 180.62,641.59 180.97,641.43 181.35,641.37 181.76,641.42"/>
    </edge>
    <edge id=":2286634658_0" function="internal">
        <lane id=":2286634658_0_0" index="0" allow="pedestrian delivery bicycle" speed="5.56" length="5.07" shape="143.81,763.02 138.84,764.02"/>
    </edge>
    <edge id=":2286634658_1" function="internal">
        <lane id=":2286634658_1_0" index="0" allow="pedestrian delivery bicycle" speed="3.65" length="1.44" shape="143.81,763.02 142.49,762.44"/>
    </edge>
    <edge id=":2286634658_4" function="internal">
        <lane id=":2286634658_4_0" index="0" allow="pedestrian delivery bicycle" speed="3.65" length="3.23" shape="142.49,762.44 141.95,761.73 142.21,760.87 143.25,759.87"/>
    </edge>
    <edge id=":2286634658_2" function="internal">
        <lane id=":2286634658_2_0" index="0" allow="pedestrian delivery bicycle" speed="5.56" length="5.21" shape="138.14,760.90 143.25,759.87"/>
    </edge>
    <edge id=":2286634658_3" function="internal">
        <lane id=":2286634658_3_0" index="0" allow="pedestrian delivery bicycle" speed="3.65" length="1.44" shape="138.14,760.90 139.49,761.42"/>
    </edge>
    <edge id=":2286634658_5" function="internal">
        <lane id=":2286634658_5_0" index="0" allow="pedestrian delivery bicycle" speed="3.65" length="3.23" shape="139.49,761.42 140.05,762.12 139.83,762.98 138.84,764.02"/>
    </edge>
    <edge id=":2286634658_w0" function="walkingarea">